<?xml version="1.0" encoding="UTF-8"?>

<!-- generated on 2025-07-26 02:01:16 by Eclipse SUMO netconvert Version 1.11.0
<configuration xmlns:xsi="http://www.w3.org/2001/XMLSchema-instance" xsi:noNamespaceSchemaLocation="http://sumo.dlr.de/xsd/netconvertConfiguration.xsd">

    <input>
        <osm-files value="mapa.osm"/>
    </input>

    <output>
        <output-file value="heterogeneous.net.xml"/>
    </output>

    <projection>
        <proj.utm value="true"/>
    </projection>

    <processing>
        <geometry.remove value="true"/>
        <edges.join value="true"/>
    </processing>

    <ramp_guessing>
        <ramps.guess value="true"/>
    </ramp_guessing>

    <edge_removal>
        <remove-edges.isolated value="true"/>
    </edge_removal>

    <report>
        <verbose value="true"/>
        <aggregate-warnings value="5"/>
    </report>

</configuration>
-->

<net version="1.9" junctionCornerDetail="5" limitTurnSpeed="5.50" xmlns:xsi="http://www.w3.org/2001/XMLSchema-instance" xsi:noNamespaceSchemaLocation="http://sumo.dlr.de/xsd/net_file.xsd">

    <location netOffset="-720143.00,322228.72" convBoundary="0.00,0.00,1745.04,1372.63" origBoundary="-79.040897,-2.916986,-79.001938,-2.901111" projParameter="+proj=utm +zone=17 +ellps=WGS84 +datum=WGS84 +units=m +no_defs"/>

    <type id="highway.bridleway" priority="1" numLanes="1" speed="2.78" allow="pedestrian" oneway="1" width="2.00"/>
    <type id="highway.bus_guideway" priority="1" numLanes="1" speed="27.78" allow="bus" oneway="1"/>
    <type id="highway.cycleway" priority="1" numLanes="1" speed="8.33" allow="bicycle" oneway="0" width="1.00"/>
    <type id="highway.footway" priority="1" numLanes="1" speed="2.78" allow="pedestrian" oneway="1" width="2.00"/>
    <type id="highway.ford" priority="1" numLanes="1" speed="2.78" allow="army" oneway="0"/>
    <type id="highway.living_street" priority="2" numLanes="1" speed="2.78" disallow="tram rail_urban rail rail_electric rail_fast ship" oneway="0"/>
    <type id="highway.motorway" priority="14" numLanes="2" speed="39.44" allow="private emergency authority army vip passenger hov taxi bus coach delivery truck trailer motorcycle evehicle custom1 custom2" oneway="1"/>
    <type id="highway.motorway_link" priority="9" numLanes="1" speed="22.22" allow="private emergency authority army vip passenger hov taxi bus coach delivery truck trailer motorcycle evehicle custom1 custom2" oneway="1"/>
    <type id="highway.path" priority="1" numLanes="1" speed="2.78" allow="pedestrian bicycle" oneway="0" width="2.00"/>
    <type id="highway.pedestrian" priority="1" numLanes="1" speed="2.78" allow="pedestrian" oneway="1" width="2.00"/>
    <type id="highway.primary" priority="12" numLanes="2" speed="27.78" disallow="tram rail_urban rail rail_electric rail_fast ship" oneway="0"/>
    <type id="highway.primary_link" priority="7" numLanes="1" speed="22.22" disallow="tram rail_urban rail rail_electric rail_fast ship" oneway="0"/>
    <type id="highway.raceway" priority="15" numLanes="2" speed="83.33" allow="vip" oneway="0"/>
    <type id="highway.residential" priority="3" numLanes="1" speed="13.89" disallow="tram rail_urban rail rail_electric rail_fast ship" oneway="0"/>
    <type id="highway.secondary" priority="11" numLanes="1" speed="27.78" disallow="tram rail_urban rail rail_electric rail_fast ship" oneway="0"/>
    <type id="highway.secondary_link" priority="6" numLanes="1" speed="22.22" disallow="tram rail_urban rail rail_electric rail_fast ship" oneway="0"/>
    <type id="highway.service" priority="1" numLanes="1" speed="5.56" allow="pedestrian delivery bicycle" oneway="0"/>
    <type id="highway.stairs" priority="1" numLanes="1" speed="1.39" allow="pedestrian" oneway="1" width="2.00"/>
    <type id="highway.step" priority="1" numLanes="1" speed="1.39" allow="pedestrian" oneway="1" width="2.00"/>
    <type id="highway.steps" priority="1" numLanes="1" speed="1.39" allow="pedestrian" oneway="1" width="2.00"/>
    <type id="highway.tertiary" priority="10" numLanes="1" speed="22.22" disallow="tram rail_urban rail rail_electric rail_fast ship" oneway="0"/>
    <type id="highway.tertiary_link" priority="5" numLanes="1" speed="22.22" disallow="tram rail_urban rail rail_electric rail_fast ship" oneway="0"/>
    <type id="highway.track" priority="1" numLanes="1" speed="5.56" allow="pedestrian motorcycle moped bicycle" oneway="0"/>
    <type id="highway.trunk" priority="13" numLanes="2" speed="27.78" disallow="pedestrian bicycle tram rail_urban rail rail_electric rail_fast ship" oneway="0"/>
    <type id="highway.trunk_link" priority="8" numLanes="1" speed="22.22" disallow="pedestrian bicycle tram rail_urban rail rail_electric rail_fast ship" oneway="0"/>
    <type id="highway.unclassified" priority="4" numLanes="1" speed="13.89" disallow="tram rail_urban rail rail_electric rail_fast ship" oneway="0"/>
    <type id="highway.unsurfaced" priority="1" numLanes="1" speed="8.33" disallow="tram rail_urban rail rail_electric rail_fast ship" oneway="0"/>
    <type id="railway.highspeed" priority="21" numLanes="1" speed="69.44" allow="rail_fast" oneway="1"/>
    <type id="railway.light_rail" priority="19" numLanes="1" speed="27.78" allow="rail_urban" oneway="1"/>
    <type id="railway.preserved" priority="16" numLanes="1" speed="27.78" allow="rail" oneway="1"/>
    <type id="railway.rail" priority="20" numLanes="1" speed="44.44" allow="rail" oneway="1"/>
    <type id="railway.subway" priority="18" numLanes="1" speed="27.78" allow="rail_urban" oneway="1"/>
    <type id="railway.tram" priority="17" numLanes="1" speed="13.89" allow="tram" oneway="1"/>

    <edge id=":1005176430_0" function="internal">
        <lane id=":1005176430_0_0" index="0" disallow="tram rail_urban rail rail_electric rail_fast ship" speed="6.18" length="7.87" shape="829.81,690.59 829.58,689.13 830.21,687.69 831.72,686.27 834.09,684.89"/>
    </edge>
    <edge id=":1005176430_1" function="internal">
        <lane id=":1005176430_1_0" index="0" disallow="tram rail_urban rail rail_electric rail_fast ship" speed="3.65" length="4.67" shape="829.81,690.59 830.05,689.17 830.61,688.48 831.50,688.51 832.73,689.27"/>
    </edge>
    <edge id=":1005176430_2" function="internal">
        <lane id=":1005176430_2_0" index="0" disallow="tram rail_urban rail rail_electric rail_fast ship" speed="13.89" length="9.51" shape="824.17,686.34 832.68,682.01"/>
        <lane id=":1005176430_2_1" index="1" disallow="tram rail_urban rail rail_electric rail_fast ship" speed="13.89" length="9.51" shape="825.66,689.17 834.09,684.89"/>
    </edge>
    <edge id=":1005176430_4" function="internal">
        <lane id=":1005176430_4_0" index="0" disallow="tram rail_urban rail rail_electric rail_fast ship" speed="6.02" length="7.93" shape="825.66,689.17 828.23,688.06 830.26,687.70 831.76,688.11 832.73,689.27"/>
    </edge>
    <edge id=":1005176622_0" function="internal">
        <lane id=":1005176622_0_0" index="0" disallow="tram rail_urban rail rail_electric rail_fast ship" speed="3.65" length="4.67" shape="852.86,733.65 852.63,735.07 852.07,735.76 851.17,735.73 849.95,734.97"/>
    </edge>
    <edge id=":10082831523_0" function="internal">
        <lane id=":10082831523_0_0" index="0" allow="bicycle" speed="2.04" length="1.46" width="1.00" shape="75.99,432.04 75.55,431.95 75.35,431.76 75.37,431.48 75.63,431.11"/>
    </edge>
    <edge id=":10082889521_0" function="internal">
        <lane id=":10082889521_0_0" index="0" allow="pedestrian delivery bicycle" speed="5.56" length="4.76" shape="1206.21,770.99 1205.49,769.78 1205.00,768.95 1204.56,768.09 1204.01,766.79"/>
    </edge>
    <edge id=":10082889521_1" function="internal">
        <lane id=":10082889521_1_0" index="0" allow="pedestrian delivery bicycle" speed="3.65" length="2.34" shape="1206.21,770.99 1206.31,769.56 1206.80,768.81"/>
    </edge>
    <edge id=":10082889521_4" function="internal">
        <lane id=":10082889521_4_0" index="0" allow="pedestrian delivery bicycle" speed="3.65" length="2.34" shape="1206.80,768.81 1207.70,768.76 1208.99,769.40"/>
    </edge>
    <edge id=":10082889521_2" function="internal">
        <lane id=":10082889521_2_0" index="0" allow="pedestrian delivery bicycle" speed="5.56" length="4.43" shape="1206.93,765.48 1207.44,766.69 1207.85,767.49 1208.32,768.27 1208.99,769.40"/>
    </edge>
    <edge id=":10082889521_3" function="internal">
        <lane id=":10082889521_3_0" index="0" allow="pedestrian delivery bicycle" speed="3.65" length="2.34" shape="1206.93,765.48 1206.69,766.90 1206.13,767.60"/>
    </edge>
    <edge id=":10082889521_5" function="internal">
        <lane id=":10082889521_5_0" index="0" allow="pedestrian delivery bicycle" speed="3.65" length="2.34" shape="1206.13,767.60 1205.23,767.56 1204.01,766.79"/>
    </edge>
    <edge id=":10082889522_0" function="internal">
        <lane id=":10082889522_0_0" index="0" allow="pedestrian delivery bicycle" speed="5.56" length="3.95" shape="1028.52,840.65 1026.91,837.04"/>
    </edge>
    <edge id=":10082889522_1" function="internal">
        <lane id=":10082889522_1_0" index="0" allow="pedestrian delivery bicycle" speed="3.65" length="2.34" shape="1028.52,840.65 1028.75,839.23 1029.31,838.53"/>
    </edge>
    <edge id=":10082889522_4" function="internal">
        <lane id=":10082889522_4_0" index="0" allow="pedestrian delivery bicycle" speed="3.65" length="2.34" shape="1029.31,838.53 1030.20,838.56 1031.43,839.32"/>
    </edge>
    <edge id=":10082889522_2" function="internal">
        <lane id=":10082889522_2_0" index="0" allow="pedestrian delivery bicycle" speed="5.56" length="3.86" shape="1029.86,835.80 1031.43,839.32"/>
    </edge>
    <edge id=":10082889522_3" function="internal">
        <lane id=":10082889522_3_0" index="0" allow="pedestrian delivery bicycle" speed="3.65" length="2.34" shape="1029.86,835.80 1029.59,837.21 1029.01,837.89"/>
    </edge>
    <edge id=":10082889522_5" function="internal">
        <lane id=":10082889522_5_0" index="0" allow="pedestrian delivery bicycle" speed="3.65" length="2.34" shape="1029.01,837.89 1028.12,837.84 1026.91,837.04"/>
    </edge>
    <edge id=":10082889523_0" function="internal">
        <lane id=":10082889523_0_0" index="0" allow="pedestrian delivery bicycle" speed="5.56" length="3.86" shape="975.52,866.91 973.74,863.48"/>
    </edge>
    <edge id=":10082889523_1" function="internal">
        <lane id=":10082889523_1_0" index="0" allow="pedestrian delivery bicycle" speed="3.65" length="2.34" shape="975.52,866.91 975.70,865.48 976.23,864.76"/>
    </edge>
    <edge id=":10082889523_4" function="internal">
        <lane id=":10082889523_4_0" index="0" allow="pedestrian delivery bicycle" speed="3.65" length="2.34" shape="976.23,864.76 977.13,864.76 978.38,865.47"/>
    </edge>
    <edge id=":10082889523_2" function="internal">
        <lane id=":10082889523_2_0" index="0" allow="pedestrian delivery bicycle" speed="5.56" length="4.01" shape="976.52,861.91 978.38,865.47"/>
    </edge>
    <edge id=":10082889523_3" function="internal">
        <lane id=":10082889523_3_0" index="0" allow="pedestrian delivery bicycle" speed="3.65" length="2.34" shape="976.52,861.91 976.42,863.35 975.92,864.09"/>
    </edge>
    <edge id=":10082889523_5" function="internal">
        <lane id=":10082889523_5_0" index="0" allow="pedestrian delivery bicycle" speed="3.65" length="2.34" shape="975.92,864.09 975.02,864.13 973.74,863.48"/>
    </edge>
    <edge id=":10082889524_0" function="internal">
        <lane id=":10082889524_0_0" index="0" disallow="tram rail_urban rail rail_electric rail_fast ship" speed="13.89" length="3.16" shape="887.41,919.30 885.43,916.84"/>
        <lane id=":10082889524_0_1" index="1" disallow="tram rail_urban rail rail_electric rail_fast ship" speed="13.89" length="3.16" shape="889.90,917.29 887.92,914.83"/>
    </edge>
    <edge id=":10082889525_0" function="internal">
        <lane id=":10082889525_0_0" index="0" allow="pedestrian delivery bicycle" speed="5.56" length="4.39" shape="754.80,1019.05 752.19,1015.52"/>
    </edge>
    <edge id=":10082889525_1" function="internal">
        <lane id=":10082889525_1_0" index="0" allow="pedestrian delivery bicycle" speed="3.65" length="2.34" shape="754.80,1019.05 754.73,1017.61 755.14,1016.81"/>
    </edge>
    <edge id=":10082889525_4" function="internal">
        <lane id=":10082889525_4_0" index="0" allow="pedestrian delivery bicycle" speed="3.65" length="2.34" shape="755.14,1016.81 756.02,1016.66 757.38,1017.15"/>
    </edge>
    <edge id=":10082889525_2" function="internal">
        <lane id=":10082889525_2_0" index="0" allow="pedestrian delivery bicycle" speed="5.56" length="4.39" shape="754.76,1013.62 757.38,1017.15"/>
    </edge>
    <edge id=":10082889525_3" function="internal">
        <lane id=":10082889525_3_0" index="0" allow="pedestrian delivery bicycle" speed="3.65" length="2.34" shape="754.76,1013.62 754.83,1015.06 754.43,1015.85"/>
    </edge>
    <edge id=":10082889525_5" function="internal">
        <lane id=":10082889525_5_0" index="0" allow="pedestrian delivery bicycle" speed="3.65" length="2.34" shape="754.43,1015.85 753.55,1016.01 752.19,1015.52"/>
    </edge>
    <edge id=":10082889531_0" function="internal">
        <lane id=":10082889531_0_0" index="0" disallow="tram rail_urban rail rail_electric rail_fast ship" speed="13.89" length="3.31" shape="869.87,898.09 868.02,895.35"/>
    </edge>
    <edge id=":10082889531_1" function="internal">
        <lane id=":10082889531_1_0" index="0" disallow="tram rail_urban rail rail_electric rail_fast ship" speed="13.89" length="3.31" shape="873.33,891.78 875.18,894.52"/>
        <lane id=":10082889531_1_1" index="1" disallow="tram rail_urban rail rail_electric rail_fast ship" speed="13.89" length="3.31" shape="870.68,893.56 872.52,896.31"/>
    </edge>
    <edge id=":10082889532_0" function="internal">
        <lane id=":10082889532_0_0" index="0" disallow="tram rail_urban rail rail_electric rail_fast ship" speed="13.89" length="4.35" shape="708.68,1019.69 710.71,1023.53"/>
    </edge>
    <edge id=":10126513929_0" function="internal">
        <lane id=":10126513929_0_0" index="0" allow="bicycle" speed="8.33" length="5.19" width="1.00" shape="431.96,314.18 426.81,314.89"/>
    </edge>
    <edge id=":10126513929_1" function="internal">
        <lane id=":10126513929_1_0" index="0" allow="bicycle" speed="2.04" length="0.73" width="1.00" shape="431.96,314.18 431.55,313.98 431.39,313.75"/>
    </edge>
    <edge id=":10126513929_4" function="internal">
        <lane id=":10126513929_4_0" index="0" allow="bicycle" speed="2.04" length="0.73" width="1.00" shape="431.39,313.75 431.48,313.48 431.82,313.18"/>
    </edge>
    <edge id=":10126513929_2" function="internal">
        <lane id=":10126513929_2_0" index="0" allow="bicycle" speed="8.33" length="5.19" width="1.00" shape="426.67,313.90 431.82,313.18"/>
    </edge>
    <edge id=":10126513929_3" function="internal">
        <lane id=":10126513929_3_0" index="0" allow="bicycle" speed="2.04" length="0.73" width="1.00" shape="426.67,313.90 427.08,314.09 427.24,314.32"/>
    </edge>
    <edge id=":10126513929_5" function="internal">
        <lane id=":10126513929_5_0" index="0" allow="bicycle" speed="2.04" length="0.73" width="1.00" shape="427.24,314.32 427.15,314.59 426.81,314.89"/>
    </edge>
    <edge id=":10126513933_0" function="internal">
        <lane id=":10126513933_0_0" index="0" allow="bicycle" speed="8.33" length="5.22" width="1.00" shape="278.77,356.74 273.82,358.41"/>
    </edge>
    <edge id=":10126513933_1" function="internal">
        <lane id=":10126513933_1_0" index="0" allow="bicycle" speed="2.04" length="0.73" width="1.00" shape="278.77,356.74 278.33,356.63 278.13,356.43"/>
    </edge>
    <edge id=":10126513933_4" function="internal">
        <lane id=":10126513933_4_0" index="0" allow="bicycle" speed="2.04" length="0.73" width="1.00" shape="278.13,356.43 278.17,356.15 278.45,355.80"/>
    </edge>
    <edge id=":10126513933_2" function="internal">
        <lane id=":10126513933_2_0" index="0" allow="bicycle" speed="8.33" length="5.22" width="1.00" shape="273.50,357.46 278.45,355.80"/>
    </edge>
    <edge id=":10126513933_3" function="internal">
        <lane id=":10126513933_3_0" index="0" allow="bicycle" speed="2.04" length="0.73" width="1.00" shape="273.50,357.46 273.93,357.58 274.13,357.78"/>
    </edge>
    <edge id=":10126513933_5" function="internal">
        <lane id=":10126513933_5_0" index="0" allow="bicycle" speed="2.04" length="0.73" width="1.00" shape="274.13,357.78 274.09,358.05 273.82,358.41"/>
    </edge>
    <edge id=":10315838432_0" function="internal">
        <lane id=":10315838432_0_0" index="0" allow="bicycle" speed="8.33" length="9.77" width="1.00" shape="1305.27,520.08 1302.76,510.64"/>
    </edge>
    <edge id=":10315838432_1" function="internal">
        <lane id=":10315838432_1_0" index="0" allow="bicycle" speed="4.96" length="6.08" shape="1305.27,520.08 1305.03,518.18 1305.33,516.77 1306.18,515.85 1307.58,515.43"/>
    </edge>
    <edge id=":10315838432_2" function="internal">
        <lane id=":10315838432_2_0" index="0" allow="bicycle" speed="2.04" length="1.46" width="1.00" shape="1305.27,520.08 1305.43,519.66 1305.64,519.48 1305.91,519.54 1306.25,519.84"/>
    </edge>
    <edge id=":10315838432_3" function="internal">
        <lane id=":10315838432_3_0" index="0" allow="bicycle" speed="4.76" length="4.38" shape="1303.72,510.36 1304.18,511.30 1304.92,511.93 1305.94,512.24 1307.24,512.24"/>
    </edge>
    <edge id=":10315838432_4" function="internal">
        <lane id=":10315838432_4_0" index="0" allow="bicycle" speed="8.33" length="9.81" width="1.00" shape="1303.72,510.36 1306.25,519.84"/>
    </edge>
    <edge id=":10315838432_5" function="internal">
        <lane id=":10315838432_5_0" index="0" allow="bicycle" speed="2.04" length="1.46" width="1.00" shape="1303.72,510.36 1303.59,510.79 1303.38,510.98 1303.11,510.93 1302.76,510.64"/>
    </edge>
    <edge id=":10315838432_6" function="internal">
        <lane id=":10315838432_6_0" index="0" allow="bicycle" speed="3.55" length="2.22" width="1.00" shape="1303.78,512.61 1302.76,510.64"/>
    </edge>
    <edge id=":10315838432_7" function="internal">
        <lane id=":10315838432_7_0" index="0" disallow="tram rail_urban rail rail_electric rail_fast ship" speed="8.33" length="3.49" shape="1303.89,513.71 1307.36,513.34"/>
        <lane id=":10315838432_7_1" index="1" disallow="tram rail_urban rail rail_electric rail_fast ship" speed="8.33" length="3.49" shape="1304.22,516.89 1307.70,516.52"/>
    </edge>
    <edge id=":10315838432_9" function="internal">
        <lane id=":10315838432_9_0" index="0" allow="bicycle" speed="4.26" length="2.94" width="1.00" shape="1304.34,517.98 1304.99,518.04 1305.52,518.37 1305.94,518.97 1306.25,519.84"/>
    </edge>
    <edge id=":10595333289_0" function="internal">
        <lane id=":10595333289_0_0" index="0" allow="bicycle" speed="8.33" length="4.87" width="1.00" shape="1371.46,758.65 1371.16,757.24 1371.03,756.25 1371.04,755.26 1371.21,753.83"/>
    </edge>
    <edge id=":10595333289_1" function="internal">
        <lane id=":10595333289_1_0" index="0" allow="bicycle" speed="2.04" length="0.73" width="1.00" shape="1371.46,758.65 1371.62,758.23 1371.84,758.06"/>
    </edge>
    <edge id=":10595333289_4" function="internal">
        <lane id=":10595333289_4_0" index="0" allow="bicycle" speed="2.04" length="0.73" width="1.00" shape="1371.84,758.06 1372.11,758.13 1372.43,758.45"/>
    </edge>
    <edge id=":10595333289_2" function="internal">
        <lane id=":10595333289_2_0" index="0" allow="bicycle" speed="8.33" length="4.53" width="1.00" shape="1372.20,753.96 1372.04,755.29 1372.03,756.21 1372.16,757.13 1372.43,758.45"/>
    </edge>
    <edge id=":10595333289_3" function="internal">
        <lane id=":10595333289_3_0" index="0" allow="bicycle" speed="2.04" length="0.73" width="1.00" shape="1372.20,753.96 1371.90,754.30 1371.64,754.39"/>
    </edge>
    <edge id=":10595333289_5" function="internal">
        <lane id=":10595333289_5_0" index="0" allow="bicycle" speed="2.04" length="0.73" width="1.00" shape="1371.64,754.39 1371.40,754.23 1371.21,753.83"/>
    </edge>
    <edge id=":10910620505_0" function="internal">
        <lane id=":10910620505_0_0" index="0" allow="pedestrian delivery bicycle" speed="5.56" length="9.41" shape="1299.45,428.32 1296.69,419.32"/>
    </edge>
    <edge id=":10910620505_1" function="internal">
        <lane id=":10910620505_1_0" index="0" allow="pedestrian delivery bicycle" speed="5.56" length="10.18" shape="1299.45,428.32 1299.05,425.65 1299.62,423.43 1301.16,421.66 1303.68,420.34"/>
    </edge>
    <edge id=":10910620505_2" function="internal">
        <lane id=":10910620505_2_0" index="0" allow="pedestrian delivery bicycle" speed="3.65" length="4.67" shape="1299.45,428.32 1299.86,426.94 1300.51,426.32 1301.39,426.47 1302.51,427.38"/>
    </edge>
    <edge id=":10910620505_3" function="internal">
        <lane id=":10910620505_3_0" index="0" allow="pedestrian delivery bicycle" speed="5.22" length="5.22" shape="1304.78,423.35 1303.45,424.03 1302.63,424.93 1302.32,426.05 1302.51,427.38"/>
    </edge>
    <edge id=":10910620505_4" function="internal">
        <lane id=":10910620505_4_0" index="0" allow="pedestrian delivery bicycle" speed="5.56" length="10.43" shape="1304.78,423.35 1301.96,423.94 1299.68,423.47 1297.92,421.93 1296.69,419.32"/>
    </edge>
    <edge id=":10910620505_5" function="internal">
        <lane id=":10910620505_5_0" index="0" allow="pedestrian delivery bicycle" speed="3.65" length="4.67" shape="1304.78,423.35 1303.38,423.01 1302.73,422.39 1302.83,421.50 1303.68,420.34"/>
    </edge>
    <edge id=":10910620505_6" function="internal">
        <lane id=":10910620505_6_0" index="0" allow="pedestrian delivery bicycle" speed="4.98" length="5.06" shape="1299.75,418.39 1300.35,419.65 1301.20,420.40 1302.31,420.63 1303.68,420.34"/>
    </edge>
    <edge id=":10910620505_7" function="internal">
        <lane id=":10910620505_7_0" index="0" allow="pedestrian delivery bicycle" speed="5.56" length="9.41" shape="1299.75,418.39 1302.51,427.38"/>
    </edge>
    <edge id=":10910620505_8" function="internal">
        <lane id=":10910620505_8_0" index="0" allow="pedestrian delivery bicycle" speed="3.65" length="4.67" shape="1299.75,418.39 1299.34,419.77 1298.69,420.38 1297.81,420.24 1296.69,419.32"/>
    </edge>
    <edge id=":10910620506_0" function="internal">
        <lane id=":10910620506_0_0" index="0" allow="pedestrian delivery bicycle" speed="5.56" length="9.40" shape="1303.16,440.45 1300.41,431.46"/>
    </edge>
    <edge id=":10910620506_1" function="internal">
        <lane id=":10910620506_1_0" index="0" allow="pedestrian delivery bicycle" speed="5.56" length="10.16" shape="1303.16,440.45 1302.73,437.70 1303.29,435.48 1304.83,433.77 1307.35,432.57"/>
    </edge>
    <edge id=":10910620506_2" function="internal">
        <lane id=":10910620506_2_0" index="0" allow="pedestrian delivery bicycle" speed="3.65" length="4.67" shape="1303.16,440.45 1303.57,439.07 1304.22,438.45 1305.10,438.60 1306.22,439.51"/>
    </edge>
    <edge id=":10910620506_3" function="internal">
        <lane id=":10910620506_3_0" index="0" allow="pedestrian delivery bicycle" speed="5.05" length="5.02" shape="1308.29,435.63 1307.05,436.22 1306.29,437.06 1306.01,438.16 1306.22,439.51"/>
    </edge>
    <edge id=":10910620506_4" function="internal">
        <lane id=":10910620506_4_0" index="0" allow="pedestrian delivery bicycle" speed="5.56" length="10.18" shape="1308.29,435.63 1305.54,436.07 1303.31,435.52 1301.60,433.99 1300.41,431.46"/>
    </edge>
    <edge id=":10910620506_5" function="internal">
        <lane id=":10910620506_5_0" index="0" allow="pedestrian delivery bicycle" speed="3.65" length="4.67" shape="1308.29,435.63 1306.91,435.22 1306.29,434.58 1306.44,433.69 1307.35,432.57"/>
    </edge>
    <edge id=":10910620506_6" function="internal">
        <lane id=":10910620506_6_0" index="0" allow="pedestrian delivery bicycle" speed="5.04" length="5.00" shape="1303.47,430.52 1304.05,431.77 1304.89,432.52 1305.99,432.79 1307.35,432.57"/>
    </edge>
    <edge id=":10910620506_7" function="internal">
        <lane id=":10910620506_7_0" index="0" allow="pedestrian delivery bicycle" speed="5.56" length="9.40" shape="1303.47,430.52 1306.22,439.51"/>
    </edge>
    <edge id=":10910620506_8" function="internal">
        <lane id=":10910620506_8_0" index="0" allow="pedestrian delivery bicycle" speed="3.65" length="4.67" shape="1303.47,430.52 1303.06,431.91 1302.41,432.52 1301.53,432.37 1300.41,431.46"/>
    </edge>
    <edge id=":10910620507_0" function="internal">
        <lane id=":10910620507_0_0" index="0" allow="pedestrian delivery bicycle" speed="5.56" length="9.41" shape="1307.80,455.63 1305.05,446.63"/>
    </edge>
    <edge id=":10910620507_1" function="internal">
        <lane id=":10910620507_1_0" index="0" allow="pedestrian delivery bicycle" speed="5.56" length="10.18" shape="1307.80,455.63 1307.40,452.94 1307.96,450.72 1309.51,448.96 1312.02,447.68"/>
    </edge>
    <edge id=":10910620507_2" function="internal">
        <lane id=":10910620507_2_0" index="0" allow="pedestrian delivery bicycle" speed="3.65" length="4.67" shape="1307.80,455.63 1308.22,454.25 1308.87,453.63 1309.75,453.78 1310.86,454.69"/>
    </edge>
    <edge id=":10910620507_3" function="internal">
        <lane id=":10910620507_3_0" index="0" allow="pedestrian delivery bicycle" speed="5.18" length="5.17" shape="1313.08,450.69 1311.78,451.35 1310.97,452.24 1310.67,453.35 1310.86,454.69"/>
    </edge>
    <edge id=":10910620507_4" function="internal">
        <lane id=":10910620507_4_0" index="0" allow="pedestrian delivery bicycle" speed="5.56" length="10.36" shape="1313.08,450.69 1310.28,451.25 1308.01,450.76 1306.27,449.22 1305.05,446.63"/>
    </edge>
    <edge id=":10910620507_5" function="internal">
        <lane id=":10910620507_5_0" index="0" allow="pedestrian delivery bicycle" speed="3.65" length="4.67" shape="1313.08,450.69 1311.69,450.34 1311.05,449.72 1311.16,448.83 1312.02,447.68"/>
    </edge>
    <edge id=":10910620507_6" function="internal">
        <lane id=":10910620507_6_0" index="0" allow="pedestrian delivery bicycle" speed="5.00" length="5.05" shape="1308.11,445.70 1308.70,446.96 1309.55,447.71 1310.66,447.95 1312.02,447.68"/>
    </edge>
    <edge id=":10910620507_7" function="internal">
        <lane id=":10910620507_7_0" index="0" allow="pedestrian delivery bicycle" speed="5.56" length="9.41" shape="1308.11,445.70 1310.86,454.69"/>
    </edge>
    <edge id=":10910620507_8" function="internal">
        <lane id=":10910620507_8_0" index="0" allow="pedestrian delivery bicycle" speed="3.65" length="4.67" shape="1308.11,445.70 1307.70,447.08 1307.05,447.69 1306.17,447.55 1305.05,446.63"/>
    </edge>
    <edge id=":10910620508_0" function="internal">
        <lane id=":10910620508_0_0" index="0" allow="pedestrian delivery bicycle" speed="4.83" length="5.14" shape="1295.26,414.63 1294.59,413.01 1293.79,412.03 1292.85,411.68 1291.76,411.97"/>
    </edge>
    <edge id=":10910620508_1" function="internal">
        <lane id=":10910620508_1_0" index="0" allow="pedestrian delivery bicycle" speed="5.56" length="10.78" shape="1295.26,414.63 1294.80,411.66 1295.44,409.36 1297.19,407.74 1300.05,406.80"/>
    </edge>
    <edge id=":10910620508_2" function="internal">
        <lane id=":10910620508_2_0" index="0" allow="pedestrian delivery bicycle" speed="3.65" length="4.67" shape="1295.26,414.63 1295.67,413.25 1296.32,412.63 1297.20,412.78 1298.32,413.69"/>
    </edge>
    <edge id=":10910620508_3" function="internal">
        <lane id=":10910620508_3_0" index="0" allow="pedestrian delivery bicycle" speed="4.92" length="5.15" shape="1300.60,409.95 1299.24,410.40 1298.40,411.17 1298.10,412.27 1298.32,413.69"/>
    </edge>
    <edge id=":10910620508_4" function="internal">
        <lane id=":10910620508_4_0" index="0" allow="pedestrian delivery bicycle" speed="5.56" length="9.15" shape="1300.60,409.95 1297.90,410.30 1296.01,410.47 1294.21,410.88 1291.76,411.97"/>
    </edge>
    <edge id=":10910620508_5" function="internal">
        <lane id=":10910620508_5_0" index="0" allow="pedestrian delivery bicycle" speed="3.65" length="4.67" shape="1300.60,409.95 1299.28,409.37 1298.75,408.65 1299.00,407.80 1300.05,406.80"/>
    </edge>
    <edge id=":10910620508_6" function="internal">
        <lane id=":10910620508_6_0" index="0" allow="pedestrian delivery bicycle" speed="5.56" length="9.38" shape="1290.97,408.77 1293.48,407.67 1295.33,407.28 1297.28,407.15 1300.05,406.80"/>
    </edge>
    <edge id=":10910620508_7" function="internal">
        <lane id=":10910620508_7_0" index="0" allow="pedestrian delivery bicycle" speed="5.56" length="10.45" shape="1290.97,408.77 1293.32,408.09 1295.32,408.68 1296.99,410.55 1298.32,413.69"/>
    </edge>
    <edge id=":10910620508_8" function="internal">
        <lane id=":10910620508_8_0" index="0" allow="pedestrian delivery bicycle" speed="3.69" length="4.81" shape="1290.97,408.77 1292.37,409.27 1292.96,409.97 1292.76,410.87 1291.76,411.97"/>
    </edge>
    <edge id=":10910620509_0" function="internal">
        <lane id=":10910620509_0_0" index="0" allow="pedestrian delivery bicycle" speed="5.56" length="9.06" shape="1312.29,471.40 1309.95,462.64"/>
    </edge>
    <edge id=":10910620509_1" function="internal">
        <lane id=":10910620509_1_0" index="0" allow="pedestrian delivery bicycle" speed="5.56" length="9.81" shape="1312.29,471.40 1312.15,469.03 1312.89,466.97 1314.51,465.24 1317.02,463.83"/>
    </edge>
    <edge id=":10910620509_2" function="internal">
        <lane id=":10910620509_2_0" index="0" allow="pedestrian delivery bicycle" speed="3.65" length="4.67" shape="1312.29,471.40 1312.80,470.05 1313.49,469.48 1314.36,469.69 1315.41,470.68"/>
    </edge>