<?xml version="1.0" encoding="UTF-8"?>

<!-- generated on 2025-07-26 02:01:23 by Eclipse SUMO polyconvert Version 1.11.0
<configuration xmlns:xsi="http://www.w3.org/2001/XMLSchema-instance" xsi:noNamespaceSchemaLocation="http://sumo.dlr.de/xsd/polyconvertConfiguration.xsd">

    <input>
        <net-file value="heterogeneous.net.xml"/>
        <osm-files value="mapa.osm"/>
    </input>

    <output>
        <output-file value="heterogeneous.poly.xml"/>
    </output>

    <processing>
        <poi-layer-offset value="5"/>
    </processing>

    <report>
        <verbose value="true"/>
    </report>

</configuration>
-->

<additional xmlns:xsi="http://www.w3.org/2001/XMLSchema-instance" xsi:noNamespaceSchemaLocation="http://sumo.dlr.de/xsd/additional_file.xsd">
    <location netOffset="-720143.00,322228.72" convBoundary="-2379.52,-385.80,1950.16,1372.63" origBoundary="-79.040897,-2.916986,-79.001938,-2.901111" projParameter="+proj=utm +zone=17 +ellps=WGS84 +datum=WGS84 +units=m +no_defs"/>

    <poly id="1097346130" type="building" color="255,230,230" fill="1" layer="-1.00" shape="1003.141358,1009.514141 1005.156665,1017.296834 997.042696,1019.379336 998.845243,1026.321844 1005.280869,1024.684697 1007.005089,1031.350843 991.610741,1035.282117 987.333796,1018.754944 992.935791,1017.329404 991.670626,1012.443111 1003.141358,1009.514141"/>
    <poly id="1097346131" type="building" color="255,230,230" fill="1" layer="-1.00" shape="1010.936997,1003.472718 1005.583614,1007.154062 1003.766439,1004.536040 993.759377,1011.410854 988.174100,1003.380064 996.659548,997.547568 998.053093,999.558036 1004.928106,994.845434 1010.936997,1003.472718"/>
    <poly id="1097346133" type="building" color="255,230,230" fill="1" layer="-1.00" shape="1040.284219,1029.544785 1035.404641,1018.117331 1043.505155,1014.707650 1048.384734,1026.135103 1040.284219,1029.544785"/>
    <poly id="1097346134" type="building" color="255,230,230" fill="1" layer="-1.00" shape="1040.102402,1033.648366 1059.248153,1025.640399 1069.018785,1048.694368 1059.140331,1052.826080 1057.532389,1049.046389 1048.276208,1052.922624 1040.102402,1033.648366"/>
    <poly id="1097346135" type="building" color="255,230,230" fill="1" layer="-1.00" shape="1066.045538,1033.680115 1069.834096,1031.760065 1065.493474,1023.284682 1075.225983,1018.367965 1084.632542,1036.744193 1071.111473,1043.580961 1066.045538,1033.680115"/>
    <poly id="1097346136" type="building" color="255,230,230" fill="1" layer="-1.00" shape="1088.932057,1015.556710 1099.944867,1011.489356 1106.179207,1028.156869 1086.253903,1035.513678 1082.600462,1025.754125 1091.512953,1022.464670 1088.932057,1015.556710"/>
    <poly id="1097346137" type="building" color="255,230,230" fill="1" layer="-1.00" shape="1128.318070,1002.237463 1129.066210,1010.309952 1115.601970,1011.528144 1103.084645,1001.087420 1102.215685,993.866765 1100.935538,986.790615 1131.266172,984.027495 1132.195896,994.178946 1136.932283,993.750324 1137.635166,1001.380492 1128.318070,1002.237463"/>
    <poly id="1097346150" type="building" color="255,230,230" fill="1" layer="-1.00" shape="1024.320070,1019.320263 1037.530163,1012.705247 1038.902695,1015.412532 1025.681481,1022.027568 1024.320070,1019.320263"/>
    <poly id="1097346151" type="building" color="255,230,230" fill="1" layer="-1.00" shape="1058.095166,964.469542 1071.772527,957.986415 1085.746045,987.071744 1072.068680,993.554871 1058.095166,964.469542"/>
    <poly id="1104966565" type="landuse" color="194,194,130" fill="1" layer="-3.00" shape="1154.811911,772.065155 1290.296466,733.105141 1299.626034,733.022323 1298.763745,729.595238 1297.856918,726.135052 1297.282735,722.132338 1288.673726,727.246193 1153.805574,768.925886 1154.811911,772.065155"/>
    <poly id="1104968107" type="building" color="255,230,230" fill="1" layer="-1.00" shape="872.378260,515.395689 886.801641,509.508480 874.774134,480.408706 860.339657,486.306995 872.378260,515.395689"/>
    <poly id="1115570253" type="building" color="255,230,230" fill="1" layer="-1.00" shape="1030.155722,803.263889 1014.124082,811.531830 1004.729372,793.564813 1020.761008,785.296873 1023.115276,789.805207 1030.155722,803.263889"/>
    <poly id="1115570573" type="building" color="255,230,230" fill="1" layer="-1.00" shape="1218.368817,1034.097576 1254.881811,1018.471801 1247.441572,999.019283 1212.372981,1013.956793 1218.368817,1034.097576"/>
    <poly id="1115570574" type="building" color="255,230,230" fill="1" layer="-1.00" shape="1212.372981,1013.956793 1206.076125,993.374141 1237.558865,981.805193 1247.441572,999.019283 1212.372981,1013.956793"/>
    <poly id="1133547245" type="building" color="255,230,230" fill="1" layer="-1.00" shape="810.563600,781.453108 804.379632,774.429838 817.270288,763.247621 823.443156,770.281970 810.563600,781.453108"/>
    <poly id="1149788456" type="building" color="255,230,230" fill="1" layer="-1.00" shape="860.519181,1017.816771 879.613087,1005.628251 846.900539,956.535190 845.545475,957.433433 826.041249,970.253092 838.157441,986.578447 860.519181,1017.816771"/>
    <poly id="1149788456#1" type="shop" color="237,199,255" fill="1" layer="-1.00" shape="860.519181,1017.816771 879.613087,1005.628251 846.900539,956.535190 845.545475,957.433433 826.041249,970.253092 838.157441,986.578447 860.519181,1017.816771"/>
    <poly id="1149788457" type="building" color="255,230,230" fill="1" layer="-1.00" shape="819.811964,1000.690082 838.157441,986.578447 826.041249,970.253092 806.549074,983.603604 819.811964,1000.690082"/>
    <poly id="1149788457#1" type="shop" color="237,199,255" fill="1" layer="-1.00" shape="819.811964,1000.690082 838.157441,986.578447 826.041249,970.253092 806.549074,983.603604 819.811964,1000.690082"/>
    <poly id="1149788458" type="building" color="255,230,230" fill="1" layer="-1.00" shape="805.064210,1011.864488 801.343445,1014.392709 788.924083,996.397827 805.317614,985.231588 819.621024,1005.932854 806.937135,1014.570892 805.064210,1011.864488"/>
    <poly id="1171015714" type="building" color="255,230,230" fill="1" layer="-1.00" shape="1121.419084,961.769981 1114.193636,944.296835 1118.660686,942.475125 1117.767247,940.297877 1126.101276,936.887774 1126.994676,939.042902 1131.317264,937.276746 1138.553874,954.771994 1121.419084,961.769981"/>
    <poly id="1171015715" type="building" color="255,230,230" fill="1" layer="-1.00" shape="1091.912287,946.127800 1106.967475,939.044999 1120.785129,968.020003 1114.085292,971.172846 1111.317321,965.382276 1106.628552,967.591476 1104.318177,962.751262 1099.984955,964.793935 1097.071841,958.671821 1101.938394,956.384889 1099.404762,951.058427 1095.204864,953.034506 1091.912287,946.127800"/>
    <poly id="1171016836" type="building" color="255,230,230" fill="1" layer="-1.00" shape="724.552703,1004.131338 733.424610,996.738731 723.214799,983.163960 714.174693,989.760543 719.033218,995.558493 724.552703,1004.131338"/>
    <poly id="1171016837" type="building" color="255,230,230" fill="1" layer="-1.00" shape="733.424610,996.738731 745.163141,988.013885 729.480655,967.193386 717.742108,975.907171 723.214799,983.163960 733.424610,996.738731"/>
    <poly id="1171016845" type="building" color="255,230,230" fill="1" layer="-1.00" shape="1060.033776,789.806529 1056.951894,782.567656 1063.163392,779.957611 1058.395454,768.784346 1070.029494,763.886385 1077.879317,782.298523 1060.033776,789.806529"/>
    <poly id="1173059672" type="building" color="255,230,230" fill="1" layer="-1.00" shape="798.784748,944.221578 791.564791,936.160485 799.217634,931.125790 806.138149,939.640869 798.784748,944.221578"/>
    <poly id="1173059673" type="building" color="255,230,230" fill="1" layer="-1.00" shape="910.786650,868.938218 904.565177,872.200807 901.370001,870.082912 890.808567,858.919846 906.957393,847.731886 915.995409,858.908692 918.354386,859.778280 918.040472,864.645231 910.786650,868.938218"/>
    <poly id="1173059674" type="building" color="255,230,230" fill="1" layer="-1.00" shape="1030.684046,882.253502 1019.310615,858.339686 1018.183308,855.963770 1033.994055,848.547842 1046.494779,874.826515 1030.684046,882.253502"/>
    <poly id="1173059675" type="building" color="255,230,230" fill="1" layer="-1.00" shape="1011.819110,891.842565 1007.455589,882.991187 999.956151,867.785831 1018.254644,858.584865 1030.740308,882.629443 1026.418328,884.738455 1011.819110,891.842565"/>
    <poly id="1173059676" type="building" color="255,230,230" fill="1" layer="-1.00" shape="999.767345,867.918883 997.389846,862.846529 981.767825,870.085157 991.545633,890.904982 995.056710,889.284040 996.954238,893.328659 999.876422,891.974194 1005.043036,889.587196 1009.065205,887.722034 1006.966777,883.257488 999.767345,867.918883"/>
    <poly id="1173059677" type="building" color="255,230,230" fill="1" layer="-1.00" shape="1041.911988,861.440921 1034.377041,845.019027 1051.754909,837.146875 1059.289859,853.568769 1041.911988,861.440921"/>
    <poly id="1173059679" type="building" color="255,230,230" fill="1" layer="-1.00" shape="1306.165828,784.141260 1312.970046,770.824054 1318.755787,772.705112 1322.305802,780.551465 1320.923487,791.215763 1306.165828,784.141260"/>
    <poly id="1173059680" type="building" color="255,230,230" fill="1" layer="-1.00" shape="1300.699062,868.549913 1319.217406,864.203851 1322.223339,872.504625 1302.805051,877.294675 1300.699062,868.549913"/>
    <poly id="1173059681" type="building" color="255,230,230" fill="1" layer="-1.00" shape="1279.824620,873.663268 1300.699062,868.549913 1302.805051,877.294675 1305.458476,887.487335 1286.545341,901.279345 1279.824620,873.663268"/>
    <poly id="1174893267" type="parking" color="184,184,179" fill="1" layer="-1.00" shape="1312.970046,770.824054 1314.809471,767.137823 1321.385396,769.393527 1324.397866,775.095184 1325.574383,780.147538 1322.305802,780.551465 1318.755787,772.705112 1312.970046,770.824054"/>
    <poly id="1174893268" type="building" color="255,230,230" fill="1" layer="-1.00" shape="1293.522768,778.080549 1303.128877,758.255110 1315.463269,765.842647 1314.809471,767.137823 1306.165828,784.141260 1293.522768,778.080549"/>
    <poly id="1174893269" type="building" color="255,230,230" fill="1" layer="-1.00" shape="1293.522768,778.080549 1282.159603,772.636941 1278.665285,777.454211 1272.208971,773.660952 1267.602249,759.335293 1292.029783,751.218395 1294.917005,755.261269 1299.472365,759.378622 1290.607006,764.161127 1293.522768,778.080549"/>
    <poly id="1174893270" type="building" color="255,230,230" fill="1" layer="-1.00" shape="1272.208971,773.660952 1274.042717,779.364687 1261.339628,783.401875 1255.480641,765.207419 1253.154943,757.989329 1265.869149,753.952121 1267.602249,759.335293 1272.208971,773.660952"/>
    <poly id="1174893272" type="building" color="255,230,230" fill="1" layer="-1.00" shape="1261.340271,783.766855 1248.135982,787.351465 1244.917272,778.199447 1243.428108,778.721893 1240.622925,770.752568 1255.481304,765.583459 1261.340271,783.766855"/>
    <poly id="1174893273" type="building" color="255,230,230" fill="1" layer="-1.00" shape="1246.311326,786.801681 1233.665202,791.612966 1230.492612,783.389909 1233.615247,782.200981 1228.174979,768.131174 1237.698445,764.497756 1246.311326,786.801681"/>
    <poly id="1174893277" type="parking" color="184,184,179" fill="1" layer="-1.00" shape="1073.873636,831.389888 1073.413975,829.267176 1071.024572,823.752443 1094.159265,813.978878 1096.730662,821.804832 1073.873636,831.389888"/>
    <poly id="1174893278" type="building" color="255,230,230" fill="1" layer="-1.00" shape="1067.591479,831.765935 1065.190957,826.251221 1071.024572,823.752443 1073.413975,829.267176 1067.591479,831.765935"/>
    <poly id="1174893280" type="building" color="255,230,230" fill="1" layer="-1.00" shape="944.702214,843.374160 954.311759,838.103741 947.529266,825.883325 937.908602,831.153763 940.719758,836.214292 944.702214,843.374160"/>
    <poly id="1174893282" type="building" color="255,230,230" fill="1" layer="-1.00" shape="922.362983,913.379027 933.925236,905.594558 939.579564,914.952424 946.324588,924.839249 935.273249,932.279959 922.362983,913.379027"/>
    <poly id="1174893283" type="parking" color="184,184,179" fill="1" layer="-1.00" shape="908.553205,939.394322 916.584148,934.370011 906.347610,918.262552 898.316688,923.297923 908.553205,939.394322"/>
    <poly id="1204173075" type="building" color="255,230,230" fill="1" layer="-1.00" shape="340.362459,324.131853 353.299014,320.116455 345.883123,301.781020 334.081871,306.402719 340.362459,324.131853"/>
    <poly id="1204173076" type="building" color="255,230,230" fill="1" layer="-1.00" shape="353.299014,320.116455 368.368063,314.659509 358.381225,288.730400 344.024905,294.783331 345.883123,301.781020 353.299014,320.116455"/>
    <poly id="1204173077" type="building" color="255,230,230" fill="1" layer="-1.00" shape="368.368063,314.659509 385.760785,308.977274 375.495282,282.672615 374.780359,280.826859 358.381225,288.730400 368.368063,314.659509"/>
    <poly id="1204173080" type="building" color="255,230,230" fill="1" layer="-1.00" shape="273.479076,389.138234 268.661880,375.200095 287.421092,368.796582 292.238291,382.734723 273.479076,389.138234"/>
    <poly id="1212910690" type="leisure" color="207,245,201" fill="1" layer="-2.00" shape="359.076425,1051.534821 367.509556,1034.896899 376.057228,1039.173163 367.612978,1055.811107 359.076425,1051.534821"/>
    <poly id="1215386271" type="building" color="255,230,230" fill="1" layer="-1.00" shape="1052.288151,647.522153 1039.224306,655.065980 1030.323720,639.852041 1043.398682,632.308194 1050.213557,643.964487 1052.288151,647.522153"/>
    <poly id="1215386272" type="building" color="255,230,230" fill="1" layer="-1.00" shape="964.657766,588.074234 953.060092,594.664310 948.799205,587.261619 960.385740,580.660503 964.657766,588.074234"/>
    <poly id="1215386273" type="building" color="255,230,230" fill="1" layer="-1.00" shape="955.969708,579.871964 960.623402,576.700604 967.267239,573.337716 972.898925,569.843891 969.196218,563.678937 952.267022,573.718070 955.969708,579.871964"/>
    <poly id="1215386275" type="building" color="255,230,230" fill="1" layer="-1.00" shape="1050.772892,671.093694 1063.636599,663.561278 1058.160390,654.324766 1055.016670,656.166267 1051.213430,649.747108 1046.236805,652.664660 1047.608617,654.962723 1043.590239,658.973527 1050.772892,671.093694"/>
    <poly id="1215388258" type="parking" color="184,184,179" fill="1" layer="-1.00" shape="927.860052,896.569217 945.678753,886.440073 959.504327,913.623331 967.741630,931.072570 960.765141,934.989030 960.617894,933.463009 950.166774,921.802047 946.813751,924.772028 933.925236,905.594558 930.257120,900.126316 927.860052,896.569217"/>
    <poly id="1216287953" type="building" color="255,230,230" fill="1" layer="-1.00" shape="1123.569275,396.356400 1132.233578,391.087607 1124.226492,378.095164 1115.562191,383.363957 1123.569275,396.356400"/>
    <poly id="1216287954" type="building" color="255,230,230" fill="1" layer="-1.00" shape="1113.189872,381.233561 1118.788323,377.817200 1115.197410,371.994911 1109.587840,375.411292 1113.189872,381.233561"/>
    <poly id="1216287955" type="building" color="255,230,230" fill="1" layer="-1.00" shape="1125.122330,406.838549 1137.675617,399.859652 1133.782531,392.942955 1121.229246,399.921852 1125.122330,406.838549"/>
    <poly id="1216287956" type="building" color="255,230,230" fill="1" layer="-1.00" shape="1129.173670,415.214888 1144.714443,406.085078 1140.632396,399.212954 1125.080524,408.353844 1129.173670,415.214888"/>
    <poly id="1216287957" type="building" color="255,230,230" fill="1" layer="-1.00" shape="1132.997517,420.704966 1137.040834,418.231450 1144.412112,430.107955 1140.368794,432.581472 1132.997517,420.704966"/>
    <poly id="1216287958" type="building" color="255,230,230" fill="1" layer="-1.00" shape="1099.369583,407.503346 1113.876080,398.309005 1109.549611,391.558973 1093.221451,401.895708 1094.035432,403.155113 1090.169997,405.606194 1092.879602,409.826337 1098.555582,406.232881 1099.369583,407.503346"/>
    <poly id="1216287959" type="building" color="255,230,230" fill="1" layer="-1.00" shape="1096.433311,419.774075 1115.060361,407.763223 1122.264075,419.208683 1098.557422,432.489337 1096.433311,419.774075"/>
    <poly id="1216287960" type="building" color="255,230,230" fill="1" layer="-1.00" shape="1112.596945,429.633207 1118.528881,426.149899 1116.911705,423.443050 1121.777216,420.580983 1130.688512,435.551574 1119.902183,441.896930 1112.596945,429.633207"/>
    <poly id="1216287961" type="building" color="255,230,230" fill="1" layer="-1.00" shape="1147.847507,385.607468 1155.835423,381.434807 1154.061435,378.086754 1158.660865,375.678614 1156.094723,370.838858 1151.884121,373.036171 1149.228708,368.019613 1140.851946,372.392040 1147.847507,385.607468"/>
    <poly id="1216287962" type="building" color="255,230,230" fill="1" layer="-1.00" shape="1146.159756,393.319274 1156.745314,386.631407 1161.016051,393.304117 1157.417183,395.577771 1158.933695,397.952997 1151.947003,402.367211 1146.159756,393.319274"/>
    <poly id="1216287963" type="building" color="255,230,230" fill="1" layer="-1.00" shape="1153.829425,410.448758 1158.774434,408.526649 1157.623944,405.619897 1166.336046,402.231218 1173.239163,419.771276 1159.593169,425.082043 1153.829425,410.448758"/>
    <poly id="1216287964" type="building" color="255,230,230" fill="1" layer="-1.00" shape="1175.437136,423.925962 1166.655442,400.483173 1173.489791,397.960488 1182.260367,421.403297 1175.437136,423.925962"/>
    <poly id="1216287965" type="building" color="255,230,230" fill="1" layer="-1.00" shape="1179.999670,413.211817 1175.647494,398.200001 1181.149107,396.619769 1182.704250,401.981131 1185.405056,401.213223 1188.202089,410.863678 1179.999670,413.211817"/>
    <poly id="1216287966" type="building" color="255,230,230" fill="1" layer="-1.00" shape="1171.716661,395.099074 1181.288292,387.273812 1177.588576,382.812097 1168.016946,390.637359 1171.716661,395.099074"/>
    <poly id="1216287967" type="building" color="255,230,230" fill="1" layer="-1.00" shape="1186.631174,396.565853 1196.000622,393.894913 1201.091326,411.515590 1191.599614,414.219926 1189.764773,407.896837 1194.977443,406.416655 1192.806895,398.899676 1187.716506,400.357522 1186.631174,396.565853"/>
    <poly id="1216287968" type="building" color="255,230,230" fill="1" layer="-1.00" shape="1198.238384,389.090916 1209.949089,383.551298 1203.263570,369.594301 1191.541746,375.133939 1198.238384,389.090916"/>
    <poly id="1216287971" type="building" color="255,230,230" fill="1" layer="-1.00" shape="1121.731758,483.059058 1131.483914,476.704469 1122.196121,462.630401 1112.443966,468.984989 1121.731758,483.059058"/>
    <poly id="1216287972" type="building" color="255,230,230" fill="1" layer="-1.00" shape="1103.760673,488.709241 1115.946387,481.377081 1119.693545,487.519837 1107.507849,494.863057 1103.760673,488.709241"/>
    <poly id="1216287973" type="building" color="255,230,230" fill="1" layer="-1.00" shape="1130.331322,504.124267 1137.263749,500.462235 1144.448698,513.876413 1137.516271,517.538445 1130.331322,504.124267"/>
    <poly id="1216287974" type="building" color="255,230,230" fill="1" layer="-1.00" shape="1145.737074,513.000400 1153.724982,508.816685 1165.754969,532.972648 1158.377838,536.690766 1155.074892,530.215425 1157.741326,528.872460 1154.427240,522.386080 1150.383158,524.428256 1145.737074,513.000400"/>
    <poly id="1216287975" type="building" color="255,230,230" fill="1" layer="-1.00" shape="1143.900581,537.258243 1153.320764,531.822221 1147.576631,522.000004 1138.156450,527.436026 1143.900581,537.258243"/>
    <poly id="1216287976" type="building" color="255,230,230" fill="1" layer="-1.00" shape="1137.013880,491.194387 1140.967986,488.577249 1135.917331,481.043232 1131.963225,483.660369 1137.013880,491.194387"/>
    <poly id="1216287977" type="building" color="255,230,230" fill="1" layer="-1.00" shape="1175.539908,482.167808 1181.449530,478.640297 1177.066558,471.381602 1171.145817,474.909133 1175.539908,482.167808"/>
    <poly id="1216287978" type="building" color="255,230,230" fill="1" layer="-1.00" shape="1183.636847,476.756235 1192.191930,472.604694 1199.568699,487.589056 1196.179994,489.231918 1193.668963,484.115562 1188.491484,486.635321 1183.636847,476.756235"/>
    <poly id="1216287979" type="building" color="255,230,230" fill="1" layer="-1.00" shape="1179.884840,493.076375 1199.815797,488.982182 1201.127959,495.284075 1181.197000,499.378267 1179.884840,493.076375"/>
    <poly id="1216287980" type="building" color="255,230,230" fill="1" layer="-1.00" shape="1177.530412,501.087978 1182.387482,499.741147 1183.931776,505.257369 1179.085827,506.604180 1177.530412,501.087978"/>
    <poly id="1216287981" type="building" color="255,230,230" fill="1" layer="-1.00" shape="1185.275771,504.392317 1183.977014,499.384422 1189.056561,498.081438 1190.355318,503.089333 1185.275771,504.392317"/>
    <poly id="1216287982" type="building" color="255,230,230" fill="1" layer="-1.00" shape="1173.396051,521.290856 1178.303550,517.013033 1171.183639,508.951785 1166.276141,513.229607 1173.396051,521.290856"/>
    <poly id="1216287983" type="building" color="255,230,230" fill="1" layer="-1.00" shape="1187.943428,535.256107 1210.072735,529.222536 1208.908431,524.789525 1207.027629,517.625954 1206.286880,513.756256 1183.111439,519.305033 1187.943428,535.256107"/>
    <poly id="1216287984" type="building" color="255,230,230" fill="1" layer="-1.00" shape="1214.368428,480.716791 1230.563249,476.728724 1232.870303,485.981886 1248.709442,482.082925 1244.722560,466.130357 1212.688623,474.028446 1214.368428,480.716791"/>
    <poly id="1216287985" type="building" color="255,230,230" fill="1" layer="-1.00" shape="1214.482434,501.210797 1212.519048,491.359789 1242.142102,484.682560 1244.427833,494.455581 1214.482434,501.210797"/>
    <poly id="1216287986" type="building" color="255,230,230" fill="1" layer="-1.00" shape="1208.908431,524.789525 1207.027629,517.625954 1206.286880,513.756256 1213.233687,511.941216 1227.138421,508.311114 1228.739073,507.954369 1242.444585,504.855497 1243.867792,511.068715 1241.033309,511.704138 1241.772986,514.965538 1236.192941,516.214107 1236.719639,518.513661 1231.261875,519.739894 1208.908431,524.789525"/>
    <poly id="1216287987" type="building" color="255,230,230" fill="1" layer="-1.00" shape="1211.107084,491.517120 1214.252056,502.991866 1210.806502,503.926988 1205.893813,505.262858 1202.748841,493.788113 1211.107084,491.517120"/>
    <poly id="1216287988" type="building" color="255,230,230" fill="1" layer="-1.00" shape="1211.173832,504.136480 1214.241541,503.334745 1226.823641,500.071958 1228.782773,507.511891 1213.132963,511.576413 1211.173832,504.136480"/>
    <poly id="1216287989" type="building" color="255,230,230" fill="1" layer="-1.00" shape="1195.221989,507.184011 1203.613670,504.957201 1201.285473,496.323438 1192.893812,498.561308 1195.221989,507.184011"/>
    <poly id="1216287990" type="building" color="255,230,230" fill="1" layer="-1.00" shape="1204.675179,476.343070 1230.481636,468.290076 1226.209970,454.793335 1200.403498,462.835271 1204.675179,476.343070"/>
    <poly id="1221433342" type="building" color="255,230,230" fill="1" layer="-1.00" shape="772.179624,1035.657046 759.203218,1017.065903 773.475167,1007.230601 778.948913,1015.084627 786.462695,1025.821724 772.179624,1035.657046"/>
    <poly id="1221433343" type="building" color="255,230,230" fill="1" layer="-1.00" shape="779.034120,1012.949900 790.817074,1004.191790 808.182586,1027.221330 802.529876,1031.423006 793.980862,1020.079430 787.850614,1024.635865 779.034120,1012.949900"/>
    <poly id="1221433348" type="building" color="255,230,230" fill="1" layer="-1.00" shape="899.244268,805.883380 915.705533,795.314223 907.866938,783.261568 891.405655,793.819665 899.244268,805.883380"/>
    <poly id="1221433349" type="building" color="255,230,230" fill="1" layer="-1.00" shape="918.240657,795.177040 927.283153,808.897635 922.295963,812.135935 924.503660,815.505347 929.490830,812.255988 942.019886,804.115889 930.178792,786.153183 919.430381,769.847553 906.912450,777.987631 918.240657,795.177040"/>
    <poly id="1221433352" type="building" color="255,230,230" fill="1" layer="-1.00" shape="918.435244,722.545699 924.243788,718.443271 929.605686,725.921446 917.622144,734.414508 914.690382,730.327472 917.144841,728.586730 917.891730,729.636114 920.401729,727.862095 918.863393,725.719164 920.096173,724.843254 918.435244,722.545699"/>
    <poly id="1221433354" type="building" color="255,230,230" fill="1" layer="-1.00" shape="910.439142,633.692710 938.615878,620.293656 924.564470,591.164258 896.387763,604.574372 910.439142,633.692710"/>
    <poly id="1221433358" type="building" color="255,230,230" fill="1" layer="-1.00" shape="729.051414,577.827363 729.323945,568.403775 754.088327,549.547140 754.327139,571.500794 752.091910,571.438369 752.216662,579.135900 748.669532,579.219565 748.777361,583.621250 737.791036,583.751190 737.636839,578.276769 729.051414,577.827363"/>
    <poly id="1221433359" type="building" color="255,230,230" fill="1" layer="-1.00" shape="690.033858,585.560609 704.959958,580.988685 700.184620,565.590533 685.258522,570.162457 690.033858,585.560609"/>
    <poly id="1221433360" type="building" color="255,230,230" fill="1" layer="-1.00" shape="720.731220,563.806888 738.481302,552.638234 736.861433,542.078799 716.909761,547.024558 720.731220,563.806888"/>
    <poly id="1221433361" type="building" color="255,230,230" fill="1" layer="-1.00" shape="780.531341,505.161084 774.124008,503.900470 762.998701,513.509071 771.188869,516.834765 770.779534,518.029964 777.166264,520.219655 777.575657,519.057635 779.567337,519.739847 781.070946,521.108638 780.009760,524.705003 783.426002,526.070425 782.529200,528.295062 787.024838,530.089924 789.339579,524.788112 795.659200,526.756721 800.025311,524.459613 800.098067,521.572828 797.689943,518.048932 798.345163,517.561139 794.854994,512.103651 797.164692,510.252565 793.360204,503.114512 796.504502,501.604815 787.300716,484.688182 772.598194,489.923331 780.531341,505.161084"/>
    <poly id="1221433362" type="building" color="255,230,230" fill="1" layer="-1.00" shape="977.713939,506.782342 985.714193,503.295399 975.637927,483.493640 967.338196,487.412451 977.713939,506.782342"/>
    <poly id="1221433363" type="building" color="255,230,230" fill="1" layer="-1.00" shape="985.714193,503.295399 997.646314,497.191364 985.382473,479.129881 975.637927,483.493640 985.714193,503.295399"/>
    <poly id="1221433364" type="building" color="255,230,230" fill="1" layer="-1.00" shape="869.729469,829.869162 887.490006,818.291266 878.235750,804.294544 860.475197,815.861379 869.729469,829.869162"/>
    <poly id="1221435849" type="building" color="255,230,230" fill="1" layer="-1.00" shape="820.319079,720.108291 838.074898,712.180200 830.461480,695.382416 812.716784,703.310487 820.319079,720.108291"/>
    <poly id="1221437754" type="building" color="255,230,230" fill="1" layer="-1.00" shape="956.013644,838.399365 963.145708,834.427327 954.969222,819.942066 947.837159,823.914103 948.640291,825.328369 956.013644,838.399365"/>
    <poly id="1222784568" type="building" color="255,230,230" fill="1" layer="-1.00" shape="1143.724025,304.854544 1154.182193,339.398620 1161.958914,360.476337 1211.153896,347.935922 1194.656105,299.975645 1185.401300,291.995595 1143.724025,304.854544"/>
    <poly id="1222784568#1" type="shop" color="237,199,255" fill="1" layer="-1.00" shape="1143.724025,304.854544 1154.182193,339.398620 1161.958914,360.476337 1211.153896,347.935922 1194.656105,299.975645 1185.401300,291.995595 1143.724025,304.854544"/>
    <poly id="1222784995" type="parking" color="184,184,179" fill="1" layer="-1.00" shape="1205.967374,654.119463 1264.959408,635.368214 1283.608359,629.440320 1280.119854,618.640837 1202.489998,643.319962 1205.967374,654.119463"/>
    <poly id="1222784996" type="building" color="255,230,230" fill="1" layer="-1.00" shape="1274.473851,714.872960 1286.790191,712.230010 1285.620676,698.539769 1293.580139,697.132165 1297.866214,687.281186 1279.570302,691.626871 1268.688913,694.532731 1274.473851,714.872960"/>
    <poly id="1222785000" type="building" color="255,230,230" fill="1" layer="-1.00" shape="1261.095338,714.244017 1256.718487,697.849731 1253.953528,687.469252 1239.048497,691.399728 1242.003723,702.476652 1239.013828,703.267187 1243.200387,718.953966 1261.095338,714.244017"/>
    <poly id="1227262419" type="building" color="255,230,230" fill="1" layer="-1.00" shape="910.172221,993.707112 894.189545,1004.540848 906.274628,1022.138158 922.257308,1011.304422 910.172221,993.707112"/>
    <poly id="1231950969" type="building" color="255,230,230" fill="1" layer="-1.00" shape="753.888663,461.421514 766.578976,456.477468 747.456035,414.228818 729.689660,422.444500 753.888663,461.421514"/>
    <poly id="1235318000" type="building" color="255,230,230" fill="1" layer="-1.00" shape="1207.657210,458.498004 1204.557126,447.255440 1230.487496,440.109144 1233.032170,451.684490 1207.657210,458.498004"/>
    <poly id="1235318001" type="building" color="255,230,230" fill="1" layer="-1.00" shape="1142.575033,472.935559 1138.309991,456.883948 1184.003160,444.880630 1188.279348,460.943284 1142.575033,472.935559"/>
    <poly id="1235318002" type="building" color="255,230,230" fill="1" layer="-1.00" shape="1109.553846,494.815208 1122.295540,487.471007 1134.847592,498.696895 1122.980512,503.849673 1109.553846,494.815208"/>
    <poly id="1235318003" type="building" color="255,230,230" fill="1" layer="-1.00" shape="1089.395252,470.717826 1106.086464,464.461600 1114.022183,474.821890 1098.311829,482.381467 1089.395252,470.717826"/>